<?xml version="1.0" encoding="UTF-8"?>

<!-- generated on 2025-06-11 20:13:35 by Eclipse SUMO netedit Version 1.18.0
<configuration xmlns:xsi="http://www.w3.org/2001/XMLSchema-instance" xsi:noNamespaceSchemaLocation="http://sumo.dlr.de/xsd/neteditConfiguration.xsd">

    <input>
        <sumo-net-file value="/home/arlo/Desktop/SimulationNetwork.net.xml"/>
    </input>

    <output>
        <output-file value="/home/arlo/Desktop/SimulationNetwork.net.xml"/>
    </output>

    <processing>
        <offset.disable-normalization value="true"/>
    </processing>

    <junctions>
        <no-internal-links value="false"/>
        <no-turnarounds value="true"/>
    </junctions>

    <pedestrian>
        <walkingareas value="true"/>
    </pedestrian>

    <netedit>
        <new-network value="false"/>
    </netedit>

</configuration>
-->

<net version="1.16" junctionCornerDetail="5" walkingareas="true" limitTurnSpeed="5.50" xmlns:xsi="http://www.w3.org/2001/XMLSchema-instance" xsi:noNamespaceSchemaLocation="http://sumo.dlr.de/xsd/net_file.xsd">

    <location netOffset="0.00,0.00" convBoundary="0.00,25.00,50.00,100.00" origBoundary="10000000000.00,10000000000.00,-10000000000.00,-10000000000.00" projParameter="!"/>

    <edge id=":J1_w0" function="walkingarea">
        <lane id=":J1_w0_0" index="0" allow="pedestrian" speed="2.78" length="8.40" width="2.00" shape="0.00,71.80 0.00,69.80 0.00,80.20 0.00,78.20"/>
    </edge>
    <edge id=":J2_0" function="internal">
        <lane id=":J2_0_0" index="0" disallow="pedestrian" speed="6.51" length="4.75" shape="23.40,82.20 23.05,79.75 22.00,78.00 21.80,77.88"/>
    </edge>
    <edge id=":J2_1" function="internal">
        <lane id=":J2_1_0" index="0" disallow="pedestrian" speed="13.89" length="14.40" shape="23.40,82.20 23.40,67.80"/>
    </edge>
    <edge id=":J2_8" function="internal">
        <lane id=":J2_8_0" index="0" disallow="pedestrian" speed="6.51" length="4.28" shape="21.80,77.88 20.25,76.95 17.80,76.60"/>
    </edge>
    <edge id=":J2_2" function="internal">
        <lane id=":J2_2_0" index="0" disallow="pedestrian" speed="6.51" length="4.75" shape="32.20,76.60 29.75,76.95 28.00,78.00 27.88,78.20"/>
    </edge>
    <edge id=":J2_3" function="internal">
        <lane id=":J2_3_0" index="0" disallow="pedestrian" speed="13.89" length="14.40" shape="32.20,76.60 17.80,76.60"/>
    </edge>
    <edge id=":J2_9" function="internal">
        <lane id=":J2_9_0" index="0" disallow="pedestrian" speed="6.51" length="4.28" shape="27.88,78.20 26.95,79.75 26.60,82.20"/>
    </edge>
    <edge id=":J2_4" function="internal">
        <lane id=":J2_4_0" index="0" disallow="pedestrian" speed="6.51" length="4.75" shape="26.60,67.80 26.95,70.25 28.00,72.00 28.20,72.12"/>
    </edge>
    <edge id=":J2_5" function="internal">
        <lane id=":J2_5_0" index="0" disallow="pedestrian" speed="13.89" length="14.40" shape="26.60,67.80 26.60,82.20"/>
    </edge>
    <edge id=":J2_10" function="internal">
        <lane id=":J2_10_0" index="0" disallow="pedestrian" speed="6.51" length="4.28" shape="28.20,72.12 29.75,73.05 32.20,73.40"/>
    </edge>
    <edge id=":J2_6" function="internal">
        <lane id=":J2_6_0" index="0" disallow="pedestrian" speed="6.51" length="4.75" shape="17.80,73.40 20.25,73.05 22.00,72.00 22.12,71.80"/>
    </edge>
    <edge id=":J2_7" function="internal">
        <lane id=":J2_7_0" index="0" disallow="pedestrian" speed="13.89" length="14.40" shape="17.80,73.40 32.20,73.40"/>
    </edge>
    <edge id=":J2_11" function="internal">
        <lane id=":J2_11_0" index="0" disallow="pedestrian" speed="6.51" length="4.28" shape="22.12,71.80 23.05,70.25 23.40,67.80"/>
    </edge>
    <edge id=":J2_c0" function="crossing" crossingEdges="-E12 E12">
        <lane id=":J2_c0_0" index="0" allow="pedestrian" speed="2.78" length="6.40" width="4.00" shape="28.20,80.20 21.80,80.20"/>
    </edge>
    <edge id=":J2_c1" function="crossing" crossingEdges="E9 -E9">
        <lane id=":J2_c1_0" index="0" allow="pedestrian" speed="2.78" length="6.40" width="4.00" shape="30.20,71.80 30.20,78.20"/>
    </edge>
    <edge id=":J2_c2" function="crossing" crossingEdges="E13 -E13">
        <lane id=":J2_c2_0" index="0" allow="pedestrian" speed="2.78" length="6.40" width="4.00" shape="21.80,69.80 28.20,69.80"/>
    </edge>
    <edge id=":J2_c3" function="crossing" crossingEdges="-E14 E14">
        <lane id=":J2_c3_0" index="0" allow="pedestrian" speed="2.78" length="6.40" width="4.00" shape="19.80,78.20 19.80,71.80"/>
    </edge>
    <edge id=":J2_w0" function="walkingarea">
        <lane id=":J2_w0_0" index="0" allow="pedestrian" speed="2.78" length="3.30" width="4.00" shape="17.80,78.20 17.80,80.20 19.80,82.20 21.80,82.20 21.69,80.98 21.36,79.98 20.80,79.20 20.02,78.64 19.02,78.31"/>
    </edge>
    <edge id=":J2_w1" function="walkingarea">
        <lane id=":J2_w1_0" index="0" allow="pedestrian" speed="2.78" length="3.30" width="4.00" shape="28.20,82.20 30.20,82.20 32.20,80.20 32.20,78.20 30.98,78.31 29.98,78.64 29.20,79.20 28.64,79.98 28.31,80.98"/>
    </edge>
    <edge id=":J2_w2" function="walkingarea">
        <lane id=":J2_w2_0" index="0" allow="pedestrian" speed="2.78" length="3.30" width="4.00" shape="32.20,71.80 32.20,69.80 30.20,67.80 28.20,67.80 28.31,69.02 28.64,70.02 29.20,70.80 29.98,71.36 30.98,71.69"/>
    </edge>
    <edge id=":J2_w3" function="walkingarea">
        <lane id=":J2_w3_0" index="0" allow="pedestrian" speed="2.78" length="3.30" width="4.00" shape="21.80,67.80 19.80,67.80 17.80,69.80 17.80,71.80 19.02,71.69 20.02,71.36 20.80,70.80 21.36,70.02 21.69,69.02"/>
    </edge>
    <edge id=":J3_0" function="internal">
        <lane id=":J3_0_0" index="0" disallow="pedestrian" speed="6.51" length="4.75" shape="23.40,57.20 23.05,54.75 22.00,53.00 21.80,52.88"/>
    </edge>
    <edge id=":J3_1" function="internal">
        <lane id=":J3_1_0" index="0" disallow="pedestrian" speed="13.89" length="14.40" shape="23.40,57.20 23.40,42.80"/>
    </edge>
    <edge id=":J3_8" function="internal">
        <lane id=":J3_8_0" index="0" disallow="pedestrian" speed="6.51" length="4.28" shape="21.80,52.88 20.25,51.95 17.80,51.60"/>
    </edge>
    <edge id=":J3_2" function="internal">
        <lane id=":J3_2_0" index="0" disallow="pedestrian" speed="6.51" length="4.75" shape="32.20,51.60 29.75,51.95 28.00,53.00 27.88,53.20"/>
    </edge>
    <edge id=":J3_3" function="internal">
        <lane id=":J3_3_0" index="0" disallow="pedestrian" speed="13.89" length="14.40" shape="32.20,51.60 17.80,51.60"/>
    </edge>
    <edge id=":J3_9" function="internal">
        <lane id=":J3_9_0" index="0" disallow="pedestrian" speed="6.51" length="4.28" shape="27.88,53.20 26.95,54.75 26.60,57.20"/>
    </edge>
    <edge id=":J3_4" function="internal">
        <lane id=":J3_4_0" index="0" disallow="pedestrian" speed="6.51" length="4.75" shape="26.60,42.80 26.95,45.25 28.00,47.00 28.20,47.12"/>
    </edge>
    <edge id=":J3_5" function="internal">
        <lane id=":J3_5_0" index="0" disallow="pedestrian" speed="13.89" length="14.40" shape="26.60,42.80 26.60,57.20"/>
    </edge>
    <edge id=":J3_10" function="internal">
        <lane id=":J3_10_0" index="0" disallow="pedestrian" speed="6.51" length="4.28" shape="28.20,47.12 29.75,48.05 32.20,48.40"/>
    </edge>
    <edge id=":J3_6" function="internal">
        <lane id=":J3_6_0" index="0" disallow="pedestrian" speed="6.51" length="4.75" shape="17.80,48.40 20.25,48.05 22.00,47.00 22.12,46.80"/>
    </edge>
    <edge id=":J3_7" function="internal">
        <lane id=":J3_7_0" index="0" disallow="pedestrian" speed="13.89" length="14.40" shape="17.80,48.40 32.20,48.40"/>
    </edge>
    <edge id=":J3_11" function="internal">
        <lane id=":J3_11_0" index="0" disallow="pedestrian" speed="6.51" length="4.28" shape="22.12,46.80 23.05,45.25 23.40,42.80"/>
    </edge>
    <edge id=":J3_c0" function="crossing" crossingEdges="-E13 E13">
        <lane id=":J3_c0_0" index="0" allow="pedestrian" speed="2.78" length="6.40" width="4.00" shape="28.20,55.20 21.80,55.20"/>
    </edge>
    <edge id=":J3_c1" function="crossing" crossingEdges="-E10 E10">
        <lane id=":J3_c1_0" index="0" allow="pedestrian" speed="2.78" length="6.40" width="4.00" shape="30.20,46.80 30.20,53.20"/>
    </edge>
    <edge id=":J3_c2" function="crossing" crossingEdges="E11 -E11">
        <lane id=":J3_c2_0" index="0" allow="pedestrian" speed="2.78" length="6.40" width="4.00" shape="21.80,44.80 28.20,44.80"/>
    </edge>
    <edge id=":J3_c3" function="crossing" crossingEdges="-E15 E15">
        <lane id=":J3_c3_0" index="0" allow="pedestrian" speed="2.78" length="6.40" width="4.00" shape="19.80,53.20 19.80,46.80"/>
    </edge>
    <edge id=":J3_w0" function="walkingarea">
        <lane id=":J3_w0_0" index="0" allow="pedestrian" speed="2.78" length="3.30" width="4.00" shape="17.80,53.20 17.80,55.20 19.80,57.20 21.80,57.20 21.69,55.98 21.36,54.98 20.80,54.20 20.02,53.64 19.02,53.31"/>
    </edge>
    <edge id=":J3_w1" function="walkingarea">
        <lane id=":J3_w1_0" index="0" allow="pedestrian" speed="2.78" length="3.30" width="4.00" shape="28.20,57.20 30.20,57.20 32.20,55.20 32.20,53.20 30.98,53.31 29.98,53.64 29.20,54.20 28.64,54.98 28.31,55.98"/>
    </edge>
    <edge id=":J3_w2" function="walkingarea">
        <lane id=":J3_w2_0" index="0" allow="pedestrian" speed="2.78" length="3.30" width="4.00" shape="32.20,46.80 32.20,44.80 30.20,42.80 28.20,42.80 28.31,44.02 28.64,45.02 29.20,45.80 29.98,46.36 30.98,46.69"/>
    </edge>
    <edge id=":J3_w3" function="walkingarea">
        <lane id=":J3_w3_0" index="0" allow="pedestrian" speed="2.78" length="3.30" width="4.00" shape="21.80,42.80 19.80,42.80 17.80,44.80 17.80,46.80 19.02,46.69 20.02,46.36 20.80,45.80 21.36,45.02 21.69,44.02"/>
    </edge>
    <edge id=":J4_w0" function="walkingarea">
        <lane id=":J4_w0_0" index="0" allow="pedestrian" speed="2.78" length="8.40" width="2.00" shape="21.80,100.00 19.80,100.00 30.20,100.00 28.20,100.00"/>
    </edge>
    <edge id=":J5_w0" function="walkingarea">
        <lane id=":J5_w0_0" index="0" allow="pedestrian" speed="2.78" length="8.40" width="2.00" shape="50.00,53.20 50.00,55.20 50.00,44.80 50.00,46.80"/>
    </edge>
    <edge id=":J6_w0" function="walkingarea">
        <lane id=":J6_w0_0" index="0" allow="pedestrian" speed="2.78" length="8.40" width="2.00" shape="50.00,78.20 50.00,80.20 50.00,69.80 50.00,71.80"/>
    </edge>
    <edge id=":J7_w0" function="walkingarea">
        <lane id=":J7_w0_0" index="0" allow="pedestrian" speed="2.78" length="8.40" width="2.00" shape="28.20,25.00 30.20,25.00 19.80,25.00 21.80,25.00"/>
    </edge>
    <edge id=":J8_w0" function="walkingarea">
        <lane id=":J8_w0_0" index="0" allow="pedestrian" speed="2.78" length="8.40" width="2.00" shape="0.00,46.80 0.00,44.80 0.00,55.20 0.00,53.20"/>
    </edge>

    <edge id="-E10" from="J3" to="J5" priority="-1" spreadType="roadCenter">
        <lane id="-E10_0" index="0" allow="pedestrian" speed="13.89" length="17.80" width="2.00" shape="32.20,45.80 50.00,45.80"/>
        <lane id="-E10_1" index="1" disallow="pedestrian" speed="13.89" length="17.80" shape="32.20,48.40 50.00,48.40"/>
    </edge>
    <edge id="-E11" from="J7" to="J3" priority="-1" spreadType="roadCenter">
        <lane id="-E11_0" index="0" allow="pedestrian" speed="13.89" length="17.80" width="2.00" shape="29.20,25.00 29.20,42.80"/>
        <lane id="-E11_1" index="1" disallow="pedestrian" speed="13.89" length="17.80" shape="26.60,25.00 26.60,42.80"/>
    </edge>
    <edge id="-E12" from="J2" to="J4" priority="-1" spreadType="roadCenter">
        <lane id="-E12_0" index="0" allow="pedestrian" speed="13.89" length="17.80" width="2.00" shape="29.20,82.20 29.20,100.00"/>
        <lane id="-E12_1" index="1" disallow="pedestrian" speed="13.89" length="17.80" shape="26.60,82.20 26.60,100.00"/>
    </edge>
    <edge id="-E13" from="J3" to="J2" priority="-1" spreadType="roadCenter">
        <lane id="-E13_0" index="0" allow="pedestrian" speed="13.89" length="10.60" width="2.00" shape="29.20,57.20 29.20,67.80"/>
        <lane id="-E13_1" index="1" disallow="pedestrian" speed="13.89" length="10.60" shape="26.60,57.20 26.60,67.80"/>
    </edge>
    <edge id="-E14" from="J2" to="J1" priority="-1" spreadType="roadCenter">
        <lane id="-E14_0" index="0" allow="pedestrian" speed="13.89" length="17.80" width="2.00" shape="17.80,79.20 0.00,79.20"/>
        <lane id="-E14_1" index="1" disallow="pedestrian" speed="13.89" length="17.80" shape="17.80,76.60 0.00,76.60"/>
    </edge>
    <edge id="-E15" from="J3" to="J8" priority="-1" spreadType="roadCenter">
        <lane id="-E15_0" index="0" allow="pedestrian" speed="13.89" length="17.80" width="2.00" shape="17.80,54.20 0.00,54.20"/>
        <lane id="-E15_1" index="1" disallow="pedestrian" speed="13.89" length="17.80" shape="17.80,51.60 0.00,51.60"/>
    </edge>
    <edge id="-E9" from="J6" to="J2" priority="-1" spreadType="roadCenter">
        <lane id="-E9_0" index="0" allow="pedestrian" speed="13.89" length="17.80" width="2.00" shape="50.00,79.20 32.20,79.20"/>
        <lane id="-E9_1" index="1" disallow="pedestrian" speed="13.89" length="17.80" shape="50.00,76.60 32.20,76.60"/>
    </edge>
    <edge id="E10" from="J5" to="J3" priority="-1" spreadType="roadCenter">
        <lane id="E10_0" index="0" allow="pedestrian" speed="13.89" length="17.80" width="2.00" shape="50.00,54.20 32.20,54.20"/>
        <lane id="E10_1" index="1" disallow="pedestrian" speed="13.89" length="17.80" shape="50.00,51.60 32.20,51.60"/>
    </edge>
    <edge id="E11" from="J3" to="J7" priority="-1" spreadType="roadCenter">
        <lane id="E11_0" index="0" allow="pedestrian" speed="13.89" length="17.80" width="2.00" shape="20.80,42.80 20.80,25.00"/>
        <lane id="E11_1" index="1" disallow="pedestrian" speed="13.89" length="17.80" shape="23.40,42.80 23.40,25.00"/>
    </edge>
    <edge id="E12" from="J4" to="J2" priority="-1" spreadType="roadCenter">
        <lane id="E12_0" index="0" allow="pedestrian" speed="13.89" length="17.80" width="2.00" shape="20.80,100.00 20.80,82.20"/>
        <lane id="E12_1" index="1" disallow="pedestrian" speed="13.89" length="17.80" shape="23.40,100.00 23.40,82.20"/>
    </edge>
    <edge id="E13" from="J2" to="J3" priority="-1" spreadType="roadCenter">
        <lane id="E13_0" index="0" allow="pedestrian" speed="13.89" length="10.60" width="2.00" shape="20.80,67.80 20.80,57.20"/>
        <lane id="E13_1" index="1" disallow="pedestrian" speed="13.89" length="10.60" shape="23.40,67.80 23.40,57.20"/>
    </edge>
    <edge id="E14" from="J1" to="J2" priority="-1" spreadType="roadCenter">
        <lane id="E14_0" index="0" allow="pedestrian" speed="13.89" length="17.80" width="2.00" shape="0.00,70.80 17.80,70.80"/>
        <lane id="E14_1" index="1" disallow="pedestrian" speed="13.89" length="17.80" shape="0.00,73.40 17.80,73.40"/>
    </edge>
    <edge id="E15" from="J8" to="J3" priority="-1" spreadType="roadCenter">
        <lane id="E15_0" index="0" allow="pedestrian" speed="13.89" length="17.80" width="2.00" shape="0.00,45.80 17.80,45.80"/>
        <lane id="E15_1" index="1" disallow="pedestrian" speed="13.89" length="17.80" shape="0.00,48.40 17.80,48.40"/>
    </edge>
    <edge id="E9" from="J2" to="J6" priority="-1" spreadType="roadCenter">
        <lane id="E9_0" index="0" allow="pedestrian" speed="13.89" length="17.80" width="2.00" shape="32.20,70.80 50.00,70.80"/>
        <lane id="E9_1" index="1" disallow="pedestrian" speed="13.89" length="17.80" shape="32.20,73.40 50.00,73.40"/>
    </edge>

    <tlLogic id="J2" type="static" programID="0" offset="0">
        <phase duration="37" state="gGrrgGrrrGrG"/>
        <phase duration="5"  state="gGrrgGrrrrrr"/>
        <phase duration="3"  state="yyrryyrrrrrr"/>
        <phase duration="37" state="rrgGrrgGGrGr"/>
        <phase duration="5"  state="rrgGrrgGrrrr"/>
        <phase duration="3"  state="rryyrryyrrrr"/>
    </tlLogic>
    <tlLogic id="J3" type="static" programID="0" offset="0">
        <phase duration="37" state="gGrrgGrrrGrG"/>
        <phase duration="5"  state="gGrrgGrrrrrr"/>
        <phase duration="3"  state="yyrryyrrrrrr"/>
        <phase duration="37" state="rrgGrrgGGrGr"/>
        <phase duration="5"  state="rrgGrrgGrrrr"/>
        <phase duration="3"  state="rryyrryyrrrr"/>
    </tlLogic>

    <junction id="J1" type="dead_end" x="0.00" y="75.00" incLanes="-E14_0 -E14_1" intLanes="" shape="0.00,75.00 0.00,80.20 0.00,75.00"/>
    <junction id="J2" type="traffic_light" x="25.00" y="75.00" incLanes="E12_0 E12_1 -E9_0 -E9_1 -E13_0 -E13_1 E14_0 E14_1 :J2_w1_0 :J2_w2_0 :J2_w3_0 :J2_w0_0" intLanes=":J2_8_0 :J2_1_0 :J2_9_0 :J2_3_0 :J2_10_0 :J2_5_0 :J2_11_0 :J2_7_0 :J2_c0_0 :J2_c1_0 :J2_c2_0 :J2_c3_0" shape="19.80,82.20 30.20,82.20 30.42,81.09 30.70,80.70 31.09,80.42 31.59,80.26 32.20,80.20 32.20,69.80 31.09,69.58 30.70,69.30 30.42,68.91 30.26,68.41 30.20,67.80 19.80,67.80 19.58,68.91 19.30,69.30 18.91,69.58 18.41,69.74 17.80,69.80 17.80,80.20 18.91,80.42 19.30,80.70 19.58,81.09 19.74,81.59">
        <request index="0"  response="100100000000" foes="100100001000" cont="1"/>
        <request index="1"  response="010101000000" foes="010111001000" cont="0"/>
        <request index="2"  response="001100100000" foes="001100100000" cont="1"/>
        <request index="3"  response="101000100011" foes="101000100011" cont="0"/>
        <request index="4"  response="011000000000" foes="011010000000" cont="1"/>
        <request index="5"  response="010100000100" foes="010110001100" cont="0"/>
        <request index="6"  response="110000000010" foes="110000000010" cont="1"/>
        <request index="7"  response="101000110010" foes="101000110010" cont="0"/>
        <request index="8"  response="000000000000" foes="000000100111" cont="0"/>
        <request index="9"  response="000000000000" foes="000010011100" cont="0"/>
        <request index="10" response="000000000000" foes="000001110010" cont="0"/>
        <request index="11" response="000000000000" foes="000011001001" cont="0"/>
    </junction>
    <junction id="J3" type="traffic_light" x="25.00" y="50.00" incLanes="E13_0 E13_1 E10_0 E10_1 -E11_0 -E11_1 E15_0 E15_1 :J3_w1_0 :J3_w2_0 :J3_w3_0 :J3_w0_0" intLanes=":J3_8_0 :J3_1_0 :J3_9_0 :J3_3_0 :J3_10_0 :J3_5_0 :J3_11_0 :J3_7_0 :J3_c0_0 :J3_c1_0 :J3_c2_0 :J3_c3_0" shape="19.80,57.20 30.20,57.20 30.42,56.09 30.70,55.70 31.09,55.42 31.59,55.26 32.20,55.20 32.20,44.80 31.09,44.58 30.70,44.30 30.42,43.91 30.26,43.41 30.20,42.80 19.80,42.80 19.58,43.91 19.30,44.30 18.91,44.58 18.41,44.74 17.80,44.80 17.80,55.20 18.91,55.42 19.30,55.70 19.58,56.09 19.74,56.59">
        <request index="0"  response="100100000000" foes="100100001000" cont="1"/>
        <request index="1"  response="010101000000" foes="010111001000" cont="0"/>
        <request index="2"  response="001100100000" foes="001100100000" cont="1"/>
        <request index="3"  response="101000100011" foes="101000100011" cont="0"/>
        <request index="4"  response="011000000000" foes="011010000000" cont="1"/>
        <request index="5"  response="010100000100" foes="010110001100" cont="0"/>
        <request index="6"  response="110000000010" foes="110000000010" cont="1"/>
        <request index="7"  response="101000110010" foes="101000110010" cont="0"/>
        <request index="8"  response="000000000000" foes="000000100111" cont="0"/>
        <request index="9"  response="000000000000" foes="000010011100" cont="0"/>
        <request index="10" response="000000000000" foes="000001110010" cont="0"/>
        <request index="11" response="000000000000" foes="000011001001" cont="0"/>
    </junction>
    <junction id="J4" type="dead_end" x="25.00" y="100.00" incLanes="-E12_0 -E12_1" intLanes="" shape="25.00,100.00 30.20,100.00 25.00,100.00"/>
    <junction id="J5" type="dead_end" x="50.00" y="50.00" incLanes="-E10_0 -E10_1" intLanes="" shape="50.00,50.00 50.00,44.80 50.00,50.00"/>
    <junction id="J6" type="dead_end" x="50.00" y="75.00" incLanes="E9_0 E9_1" intLanes="" shape="50.00,75.00 50.00,69.80 50.00,75.00"/>
    <junction id="J7" type="dead_end" x="25.00" y="25.00" incLanes="E11_0 E11_1" intLanes="" shape="25.00,25.00 19.80,25.00 25.00,25.00"/>
    <junction id="J8" type="dead_end" x="0.00" y="50.00" incLanes="-E15_0 -E15_1" intLanes="" shape="0.00,50.00 0.00,55.20 0.00,50.00"/>

    <junction id=":J2_8_0" type="internal" x="21.80" y="77.88" incLanes=":J2_0_0" intLanes=":J2_3_0 :J2_c0_0 :J2_c3_0"/>
    <junction id=":J2_9_0" type="internal" x="27.88" y="78.20" incLanes=":J2_2_0" intLanes=":J2_5_0 :J2_c0_0 :J2_c1_0"/>
    <junction id=":J2_10_0" type="internal" x="28.20" y="72.12" incLanes=":J2_4_0" intLanes=":J2_7_0 :J2_c1_0 :J2_c2_0"/>
    <junction id=":J2_11_0" type="internal" x="22.12" y="71.80" incLanes=":J2_6_0" intLanes=":J2_1_0 :J2_c2_0 :J2_c3_0"/>
    <junction id=":J3_8_0" type="internal" x="21.80" y="52.88" incLanes=":J3_0_0" intLanes=":J3_3_0 :J3_c0_0 :J3_c3_0"/>
    <junction id=":J3_9_0" type="internal" x="27.88" y="53.20" incLanes=":J3_2_0" intLanes=":J3_5_0 :J3_c0_0 :J3_c1_0"/>
    <junction id=":J3_10_0" type="internal" x="28.20" y="47.12" incLanes=":J3_4_0" intLanes=":J3_7_0 :J3_c1_0 :J3_c2_0"/>
    <junction id=":J3_11_0" type="internal" x="22.12" y="46.80" incLanes=":J3_6_0" intLanes=":J3_1_0 :J3_c2_0 :J3_c3_0"/>

    <connection from="-E11" to="-E10" fromLane="1" toLane="1" via=":J3_4_0" tl="J3" linkIndex="4" dir="r" state="o"/>
    <connection from="-E11" to="-E13" fromLane="1" toLane="1" via=":J3_5_0" tl="J3" linkIndex="5" dir="s" state="o"/>
    <connection from="-E13" to="E9" fromLane="1" toLane="1" via=":J2_4_0" tl="J2" linkIndex="4" dir="r" state="o"/>
    <connection from="-E13" to="-E12" fromLane="1" toLane="1" via=":J2_5_0" tl="J2" linkIndex="5" dir="s" state="o"/>
    <connection from="-E9" to="-E12" fromLane="1" toLane="1" via=":J2_2_0" tl="J2" linkIndex="2" dir="r" state="o"/>
    <connection from="-E9" to="-E14" fromLane="1" toLane="1" via=":J2_3_0" tl="J2" linkIndex="3" dir="s" state="o"/>
    <connection from="E10" to="-E13" fromLane="1" toLane="1" via=":J3_2_0" tl="J3" linkIndex="2" dir="r" state="o"/>
    <connection from="E10" to="-E15" fromLane="1" toLane="1" via=":J3_3_0" tl="J3" linkIndex="3" dir="s" state="o"/>
    <connection from="E12" to="-E14" fromLane="1" toLane="1" via=":J2_0_0" tl="J2" linkIndex="0" dir="r" state="o"/>
    <connection from="E12" to="E13" fromLane="1" toLane="1" via=":J2_1_0" tl="J2" linkIndex="1" dir="s" state="o"/>
    <connection from="E13" to="-E15" fromLane="1" toLane="1" via=":J3_0_0" tl="J3" linkIndex="0" dir="r" state="o"/>
    <connection from="E13" to="E11" fromLane="1" toLane="1" via=":J3_1_0" tl="J3" linkIndex="1" dir="s" state="o"/>
    <connection from="E14" to="E13" fromLane="1" toLane="1" via=":J2_6_0" tl="J2" linkIndex="6" dir="r" state="o"/>
    <connection from="E14" to="E9" fromLane="1" toLane="1" via=":J2_7_0" tl="J2" linkIndex="7" dir="s" state="o"/>
    <connection from="E15" to="E11" fromLane="1" toLane="1" via=":J3_6_0" tl="J3" linkIndex="6" dir="r" state="o"/>
    <connection from="E15" to="-E10" fromLane="1" toLane="1" via=":J3_7_0" tl="J3" linkIndex="7" dir="s" state="o"/>

    <connection from=":J2_0" to="-E14" fromLane="0" toLane="1" via=":J2_8_0" dir="r" state="m"/>
    <connection from=":J2_8" to="-E14" fromLane="0" toLane="1" dir="r" state="m"/>
    <connection from=":J2_1" to="E13" fromLane="0" toLane="1" dir="s" state="M"/>
    <connection from=":J2_2" to="-E12" fromLane="0" toLane="1" via=":J2_9_0" dir="r" state="m"/>
    <connection from=":J2_9" to="-E12" fromLane="0" toLane="1" dir="r" state="m"/>
    <connection from=":J2_3" to="-E14" fromLane="0" toLane="1" dir="s" state="M"/>
    <connection from=":J2_4" to="E9" fromLane="0" toLane="1" via=":J2_10_0" dir="r" state="m"/>
    <connection from=":J2_10" to="E9" fromLane="0" toLane="1" dir="r" state="m"/>
    <connection from=":J2_5" to="-E12" fromLane="0" toLane="1" dir="s" state="M"/>
    <connection from=":J2_6" to="E13" fromLane="0" toLane="1" via=":J2_11_0" dir="r" state="m"/>
    <connection from=":J2_11" to="E13" fromLane="0" toLane="1" dir="r" state="m"/>
    <connection from=":J2_7" to="E9" fromLane="0" toLane="1" dir="s" state="M"/>
    <connection from=":J3_0" to="-E15" fromLane="0" toLane="1" via=":J3_8_0" dir="r" state="m"/>
    <connection from=":J3_8" to="-E15" fromLane="0" toLane="1" dir="r" state="m"/>
    <connection from=":J3_1" to="E11" fromLane="0" toLane="1" dir="s" state="M"/>
    <connection from=":J3_2" to="-E13" fromLane="0" toLane="1" via=":J3_9_0" dir="r" state="m"/>
    <connection from=":J3_9" to="-E13" fromLane="0" toLane="1" dir="r" state="m"/>
    <connection from=":J3_3" to="-E15" fromLane="0" toLane="1" dir="s" state="M"/>
    <connection from=":J3_4" to="-E10" fromLane="0" toLane="1" via=":J3_10_0" dir="r" state="m"/>
    <connection from=":J3_10" to="-E10" fromLane="0" toLane="1" dir="r" state="m"/>
    <connection from=":J3_5" to="-E13" fromLane="0" toLane="1" dir="s" state="M"/>
    <connection from=":J3_6" to="E11" fromLane="0" toLane="1" via=":J3_11_0" dir="r" state="m"/>
    <connection from=":J3_11" to="E11" fromLane="0" toLane="1" dir="r" state="m"/>
    <connection from=":J3_7" to="-E10" fromLane="0" toLane="1" dir="s" state="M"/>

    <connection from=":J1_w0" to="E14" fromLane="0" toLane="0" dir="s" state="M"/>
    <connection from="-E14" to=":J1_w0" fromLane="0" toLane="0" dir="s" state="M"/>
    <connection from=":J2_c0" to=":J2_w0" fromLane="0" toLane="0" dir="s" state="M"/>
    <connection from=":J2_c1" to=":J2_w1" fromLane="0" toLane="0" dir="s" state="M"/>
    <connection from=":J2_c2" to=":J2_w2" fromLane="0" toLane="0" dir="s" state="M"/>
    <connection from=":J2_c3" to=":J2_w3" fromLane="0" toLane="0" dir="s" state="M"/>
    <connection from=":J2_w0" to=":J2_c3" fromLane="0" toLane="0" tl="J2" linkIndex="11" dir="s" state="M"/>
    <connection from=":J2_w0" to="-E14" fromLane="0" toLane="0" dir="s" state="M"/>
    <connection from="E12" to=":J2_w0" fromLane="0" toLane="0" dir="s" state="M"/>
    <connection from=":J2_w1" to=":J2_c0" fromLane="0" toLane="0" tl="J2" linkIndex="8" dir="s" state="M"/>
    <connection from=":J2_w1" to="-E12" fromLane="0" toLane="0" dir="s" state="M"/>
    <connection from="-E9" to=":J2_w1" fromLane="0" toLane="0" dir="s" state="M"/>
    <connection from=":J2_w2" to=":J2_c1" fromLane="0" toLane="0" tl="J2" linkIndex="9" dir="s" state="M"/>
    <connection from=":J2_w2" to="E9" fromLane="0" toLane="0" dir="s" state="M"/>
    <connection from="-E13" to=":J2_w2" fromLane="0" toLane="0" dir="s" state="M"/>
    <connection from=":J2_w3" to=":J2_c2" fromLane="0" toLane="0" tl="J2" linkIndex="10" dir="s" state="M"/>
    <connection from=":J2_w3" to="E13" fromLane="0" toLane="0" dir="s" state="M"/>
    <connection from="E14" to=":J2_w3" fromLane="0" toLane="0" dir="s" state="M"/>
    <connection from=":J3_c0" to=":J3_w0" fromLane="0" toLane="0" dir="s" state="M"/>
    <connection from=":J3_c1" to=":J3_w1" fromLane="0" toLane="0" dir="s" state="M"/>
    <connection from=":J3_c2" to=":J3_w2" fromLane="0" toLane="0" dir="s" state="M"/>
    <connection from=":J3_c3" to=":J3_w3" fromLane="0" toLane="0" dir="s" state="M"/>
    <connection from=":J3_w0" to=":J3_c3" fromLane="0" toLane="0" tl="J3" linkIndex="11" dir="s" state="M"/>
    <connection from=":J3_w0" to="-E15" fromLane="0" toLane="0" dir="s" state="M"/>
    <connection from="E13" to=":J3_w0" fromLane="0" toLane="0" dir="s" state="M"/>
    <connection from=":J3_w1" to=":J3_c0" fromLane="0" toLane="0" tl="J3" linkIndex="8" dir="s" state="M"/>
    <connection from=":J3_w1" to="-E13" fromLane="0" toLane="0" dir="s" state="M"/>
    <connection from="E10" to=":J3_w1" fromLane="0" toLane="0" dir="s" state="M"/>
    <connection from=":J3_w2" to=":J3_c1" fromLane="0" toLane="0" tl="J3" linkIndex="9" dir="s" state="M"/>
    <connection from=":J3_w2" to="-E10" fromLane="0" toLane="0" dir="s" state="M"/>
    <connection from="-E11" to=":J3_w2" fromLane="0" toLane="0" dir="s" state="M"/>
    <connection from=":J3_w3" to=":J3_c2" fromLane="0" toLane="0" tl="J3" linkIndex="10" dir="s" state="M"/>
    <connection from=":J3_w3" to="E11" fromLane="0" toLane="0" dir="s" state="M"/>
    <connection from="E15" to=":J3_w3" fromLane="0" toLane="0" dir="s" state="M"/>
    <connection from=":J4_w0" to="E12" fromLane="0" toLane="0" dir="s" state="M"/>
    <connection from="-E12" to=":J4_w0" fromLane="0" toLane="0" dir="s" state="M"/>
    <connection from=":J5_w0" to="E10" fromLane="0" toLane="0" dir="s" state="M"/>
    <connection from="-E10" to=":J5_w0" fromLane="0" toLane="0" dir="s" state="M"/>
    <connection from=":J6_w0" to="-E9" fromLane="0" toLane="0" dir="s" state="M"/>
    <connection from="E9" to=":J6_w0" fromLane="0" toLane="0" dir="s" state="M"/>
    <connection from=":J7_w0" to="-E11" fromLane="0" toLane="0" dir="s" state="M"/>
    <connection from="E11" to=":J7_w0" fromLane="0" toLane="0" dir="s" state="M"/>
    <connection from=":J8_w0" to="E15" fromLane="0" toLane="0" dir="s" state="M"/>
    <connection from="-E15" to=":J8_w0" fromLane="0" toLane="0" dir="s" state="M"/>
</net>
